8500-Node/IEEE8500u_Power_elem_kVA.txt

CIRCUIT ELEMENT POWER FLOW

(Power Flow into element from indicated Bus)

Power Delivery Elements

  Bus Phase     kW     +j   kvar         kVA         PF

ELEMENT = "Vsource.source"
SOURCEBUS    1     -1425.6 +j    332.1     1463.8      -0.9739
SOURCEBUS    2     -1497.4 +j    271.6     1521.8      -0.9840
SOURCEBUS    3     -1409.1 +j    239.7     1429.3      -0.9858
   TERMINAL TOTAL -4332.1 +j    843.3     4413.4      -0.9816
SOURCEBUS    0         0.0 +j      0.0        0.0       1.0000
SOURCEBUS    0         0.0 +j      0.0        0.0       1.0000
SOURCEBUS    0         0.0 +j      0.0        0.0       1.0000
   TERMINAL TOTAL     0.0 +j      0.0        0.0       1.0000

ELEMENT = "Line.hvmv_sub_connector"
_HVMV_SUB_LSB     1      1339.2 +j   -354.4     1385.3      -0.9667
_HVMV_SUB_LSB     2      1475.9 +j   -307.7     1507.7      -0.9790
_HVMV_SUB_LSB     3      1508.3 +j   -301.2     1538.1      -0.9806
   TERMINAL TOTAL  4323.4 +j   -963.2     4429.4      -0.9761
HVMV_SUB_48332     1     -1339.2 +j    354.4     1385.3      -0.9667
HVMV_SUB_48332     2     -1475.9 +j    307.7     1507.7      -0.9790
HVMV_SUB_48332     3     -1508.3 +j    301.2     1538.1      -0.9806
   TERMINAL TOTAL -4323.4 +j    963.2     4429.4      -0.9761

ELEMENT = "Line.ln5502549-1"
M1009763     2         0.0 +j      0.0        0.0       0.8734
   TERMINAL TOTAL     0.0 +j      0.0        0.0       0.8734

ELEMENT = "Line.ln6259988-1"
M1069148     3         0.0 +j      0.0        0.0       0.8741
   TERMINAL TOTAL     0.0 +j      0.0        0.0       0.8741

ELEMENT = "Line.ln6077796-1"
M1069588     2         0.0 +j      0.0        0.0       0.8733
   TERMINAL TOTAL     0.0 +j      0.0        0.0       0.8733

ELEMENT = "Line.ln5835135-2"
M3036164     2         0.0 +j      0.0        0.0       0.8733
   TERMINAL TOTAL     0.0 +j      0.0        0.0       0.8733

ELEMENT = "Line.ln5896826-1"
M1209749     2         0.0 +j      0.0        0.0       0.7855
   TERMINAL TOTAL     0.0 +j      0.0        0.0       0.7855

ELEMENT = "Line.ln5714038-1"
M1108264     2         0.0 +j      0.0        0.0       0.8746
   TERMINAL TOTAL     0.0 +j      0.0        0.0       0.8746

ELEMENT = "Line.ln5653457-1"
L3085398     1       -70.6 +j     11.8       71.6      -0.9862
L3085398     2       -14.8 +j     25.5       29.5      -0.5022
L3085398     3       -77.8 +j     10.5       78.6      -0.9910
   TERMINAL TOTAL  -163.2 +j     47.9      170.1      -0.9596
M1026891     1        70.6 +j    -11.8       71.6      -0.9862
M1026891     2        14.8 +j    -25.5       29.5      -0.5019
M1026891     3        77.9 +j    -10.6       78.6      -0.9909
   TERMINAL TOTAL   163.3 +j    -47.9      170.1      -0.9595

ELEMENT = "Line.ln5835173-1"
L3216367     1        73.2 +j     17.8       75.3       0.9715
L3216367     2       160.3 +j     39.9      165.2       0.9703
L3216367     3       245.5 +j     64.9      253.9       0.9667
   TERMINAL TOTAL   478.9 +j    122.7      494.4       0.9687
M1069468     1       -73.2 +j    -17.9       75.3       0.9715
M1069468     2      -160.2 +j    -39.9      165.1       0.9703
M1069468     3      -245.5 +j    -64.9      253.9       0.9668
   TERMINAL TOTAL  -478.9 +j   -122.7      494.3       0.9687

ELEMENT = "Line.ln6321415-1"
M1142800     2         0.0 +j      0.0        0.0       0.7824
   TERMINAL TOTAL     0.0 +j      0.0        0.0       0.7824

ELEMENT = "Line.ln5565092-1"
M1047592     3         0.0 +j      0.0        0.0       0.8732
   TERMINAL TOTAL     0.0 +j      0.0        0.0       0.8732

ELEMENT = "Line.ln6073648-1"
M1047339     1         0.0 +j      0.0        0.0       0.8843
   TERMINAL TOTAL     0.0 +j      0.0        0.0       0.8843

ELEMENT = "Line.ln5774457-1"
M1026915     1        74.3 +j     17.8       76.4       0.9724
M1026915     2        60.4 +j     14.2       62.1       0.9733
M1026915     3        59.7 +j     14.6       61.5       0.9712
   TERMINAL TOTAL   194.4 +j     46.7      200.0       0.9723
M1026920     1       -74.3 +j    -17.8       76.4       0.9724
M1026920     2       -60.4 +j    -14.2       62.1       0.9733
M1026920     3       -59.7 +j    -14.7       61.5       0.9712
   TERMINAL TOTAL  -194.4 +j    -46.7      199.9       0.9723

ELEMENT = "Line.ln5534966-3"
N1138596     1         0.0 +j      0.0        0.0       0.8733
   TERMINAL TOTAL     0.0 +j      0.0        0.0       0.8733

ELEMENT = "Line.ln5859996-1"
M1069464     2         0.0 +j      0.0        0.0       0.7814
   TERMINAL TOTAL     0.0 +j      0.0        0.0       0.7814

ELEMENT = "Line.ln6138610-2"
N1144665     1       302.6 +j     74.6      311.6       0.9710
N1144665     2       252.6 +j     62.9      260.3       0.9704
N1144665     3       412.9 +j    108.4      426.9       0.9673
   TERMINAL TOTAL   968.1 +j    245.8      998.9       0.9692
M1047515     1      -302.5 +j    -74.5      311.6       0.9710
M1047515     2      -252.6 +j    -62.9      260.3       0.9704
M1047515     3      -412.8 +j   -108.3      426.8       0.9673
   TERMINAL TOTAL  -967.9 +j   -245.8      998.6       0.9692

ELEMENT = "Line.ln6258435-3"
N1137002     1         0.0 +j      0.0        0.0       0.7819
   TERMINAL TOTAL     0.0 +j      0.0        0.0       0.7819

ELEMENT = "Line.ln5804790-1"
L2729406     3         0.0 +j      0.0        0.0       0.8748
   TERMINAL TOTAL     0.0 +j      0.0        0.0       0.8748

ELEMENT = "Line.ln6900591-14"
L3649301     1         0.0 +j      0.0        0.0       0.7816
   TERMINAL TOTAL     0.0 +j      0.0        0.0       0.7816

ELEMENT = "Line.ln6409873-1"
L2970842     2         0.0 +j      0.0        0.0       0.8733
   TERMINAL TOTAL     0.0 +j      0.0        0.0       0.8733

ELEMENT = "Line.ln6014135-1"
M1047312     1         0.0 +j      0.0        0.0       0.8758
   TERMINAL TOTAL     0.0 +j      0.0        0.0       0.8758

ELEMENT = "Line.ln6077784-1"
L2822871     1        23.7 +j     34.6       41.9       0.5661
L2822871     2        54.8 +j     42.0       69.1       0.7937
L2822871     3        -8.4 +j     27.4       28.7      -0.2934
   TERMINAL TOTAL    70.1 +j    104.0      125.4       0.5590
M1026872     1       -23.7 +j    -34.6       41.9       0.5659
M1026872     2       -54.8 +j    -42.0       69.1       0.7936
M1026872     3         8.4 +j    -27.5       28.7      -0.2933
   TERMINAL TOTAL   -70.1 +j   -104.0      125.5       0.5588

ELEMENT = "Line.ln5744338-1"
M1026312     2         0.0 +j      0.0        0.0       0.8740
   TERMINAL TOTAL     0.0 +j      0.0        0.0       0.8740

ELEMENT = "Line.ln6991381-4"
L3728038     1         0.0 +j      0.0        0.0       0.7816
   TERMINAL TOTAL     0.0 +j      0.0        0.0       0.7816

ELEMENT = "Line.ln5774480-1"
M1069567     2         0.0 +j      0.0        0.0       0.8733
   TERMINAL TOTAL     0.0 +j      0.0        0.0       0.8733

ELEMENT = "Line.ln5986938-3"
N1140830     1         0.0 +j      0.0        0.0       0.8732
   TERMINAL TOTAL     0.0 +j      0.0        0.0       0.8732

ELEMENT = "Line.ln5894230-1"
L2952007     3         0.0 +j      0.0        0.0       0.8743
   TERMINAL TOTAL     0.0 +j      0.0        0.0       0.8743

ELEMENT = "Line.ln5683858-3"
N1140827     1         6.9 +j      1.9        7.2       0.9651
N1140827     2        11.2 +j      3.0       11.6       0.9667
N1140827     3         7.9 +j      2.1        8.2       0.9659
   TERMINAL TOTAL    26.1 +j      7.0       27.0       0.9660
M1026726     1        -6.9 +j     -1.9        7.2       0.9650
M1026726     2       -11.2 +j     -3.0       11.6       0.9666
M1026726     3        -7.9 +j     -2.1        8.2       0.9658
   TERMINAL TOTAL   -26.1 +j     -7.0       27.0       0.9659

ELEMENT = "Line.ln5920279-5"
L2730106     1       672.1 +j   -232.7      711.2      -0.9450
L2730106     2       690.1 +j   -227.9      726.7      -0.9496
L2730106     3       673.9 +j   -224.7      710.4      -0.9487
   TERMINAL TOTAL  2036.1 +j   -685.3     2148.3      -0.9478
N1142099     1      -672.0 +j    232.8      711.2      -0.9449
N1142099     2      -690.0 +j    228.0      726.7      -0.9495
N1142099     3      -673.9 +j    224.8      710.4      -0.9486
   TERMINAL TOTAL -2036.0 +j    685.5     2148.3      -0.9477

ELEMENT = "Line.ln6439600-1"
M1026658     1         0.0 +j      0.0        0.0       0.7827
   TERMINAL TOTAL     0.0 +j      0.0        0.0       0.7827

ELEMENT = "Line.ln5589097-1"
P895112     1         0.0 +j      0.0        0.0       0.7679
   TERMINAL TOTAL     0.0 +j      0.0        0.0       0.7679

ELEMENT = "Line.ln5651975-1"
L2991914     1       153.4 +j     37.3      157.9       0.9717
L2991914     2        58.2 +j     14.6       60.0       0.9699
L2991914     3       107.0 +j     27.1      110.4       0.9694
   TERMINAL TOTAL   318.6 +j     79.0      328.2       0.9706
M1047503     1      -153.4 +j    -37.3      157.9       0.9717
M1047503     2       -58.2 +j    -14.6       60.0       0.9699
M1047503     3      -107.0 +j    -27.1      110.4       0.9694
   TERMINAL TOTAL  -318.5 +j    -79.0      328.2       0.9706

ELEMENT = "Line.ln5865236-1"
M1047751     1         0.0 +j      0.0        0.0       0.8733
   TERMINAL TOTAL     0.0 +j      0.0        0.0       0.8733

ELEMENT = "Line.ln5593232-1"
L3010565     3         0.0 +j      0.0        0.0       0.7829
   TERMINAL TOTAL     0.0 +j      0.0        0.0       0.7829

ELEMENT = "Line.ln5740283-1"
M1125955     3         0.0 +j      0.0        0.0       0.8767
   TERMINAL TOTAL     0.0 +j      0.0        0.0       0.8767

ELEMENT = "Line.ln6106559-1"
M1069640     2         0.0 +j      0.0        0.0       0.8736
   TERMINAL TOTAL     0.0 +j      0.0        0.0       0.8736

ELEMENT = "Line.ln5714056-3"
M1026702     1       128.0 +j     31.0      131.8       0.9718
M1026702     2        48.9 +j     12.5       50.4       0.9690
M1026702     3        86.6 +j     22.3       89.5       0.9684
   TERMINAL TOTAL   263.6 +j     65.8      271.7       0.9702
N1139551     1      -128.0 +j    -31.0      131.7       0.9718
N1139551     2       -48.9 +j    -12.5       50.4       0.9689
N1139551     3       -86.6 +j    -22.4       89.4       0.9683
   TERMINAL TOTAL  -263.5 +j    -65.9      271.6       0.9701

ELEMENT = "Line.ln5985355-3"
N1136355     2         0.0 +j      0.0        0.1       0.8766
   TERMINAL TOTAL     0.0 +j      0.0        0.1       0.8766

ELEMENT = "Line.ln5531956-1"
L2748143     1         0.0 +j      0.0        0.0       0.7822
   TERMINAL TOTAL     0.0 +j      0.0        0.0       0.7822

ELEMENT = "Line.ln5650048-1"
M1069610     2         0.0 +j      0.0        0.0       0.7821
   TERMINAL TOTAL     0.0 +j      0.0        0.0       0.7821

ELEMENT = "Line.ln6290203-1"
M1069424     1        56.5 +j     13.9       58.2       0.9712
M1069424     2       137.9 +j     34.4      142.1       0.9702
M1069424     3       222.3 +j     58.7      230.0       0.9669
   TERMINAL TOTAL   416.7 +j    107.0      430.2       0.9686
L2935549     1       -56.5 +j    -13.9       58.2       0.9711
L2935549     2      -137.8 +j    -34.4      142.1       0.9702
L2935549     3      -222.3 +j    -58.7      229.9       0.9669
   TERMINAL TOTAL  -416.6 +j   -107.0      430.1       0.9686

ELEMENT = "Line.ln6134414-1"
P895089     3         0.0 +j      0.0        0.0       0.7817
   TERMINAL TOTAL     0.0 +j      0.0        0.0       0.7817

ELEMENT = "Line.ln6259998-2"
M1026795     3         0.0 +j      0.0        0.0       0.7815
   TERMINAL TOTAL     0.0 +j      0.0        0.0       0.7815

ELEMENT = "Line.ln6078767-1"
L3030199     1       265.7 +j   -260.5      372.1      -0.7141
L3030199     2       343.4 +j   -239.4      418.6      -0.8203
L3030199     3       411.6 +j   -228.3      470.6      -0.8745
   TERMINAL TOTAL  1020.7 +j   -728.1     1253.8      -0.8141
M1125934     1      -265.7 +j    260.5      372.1      -0.7141
M1125934     2      -343.4 +j    239.4      418.6      -0.8203
M1125934     3      -411.6 +j    228.3      470.6      -0.8745
   TERMINAL TOTAL -1020.7 +j    728.2     1253.8      -0.8140

ELEMENT = "Line.ln6017300-1"
M1069189     3         0.0 +j      0.0        0.0       0.8779
   TERMINAL TOTAL     0.0 +j      0.0        0.0       0.8779

ELEMENT = "Line.ln8979257-2"
221-312488     1         3.3 +j      0.8        3.4       0.9728
221-312488     2         3.6 +j      0.9        3.7       0.9725
221-312488     3         3.8 +j      0.9        3.9       0.9724
   TERMINAL TOTAL    10.7 +j      2.6       11.0       0.9725
M1089183     1        -3.3 +j     -0.8        3.4       0.9718
M1089183     2        -3.6 +j     -0.9        3.7       0.9717
M1089183     3        -3.8 +j     -0.9        3.9       0.9715
   TERMINAL TOTAL   -10.7 +j     -2.6       11.0       0.9717

ELEMENT = "Line.ln81048109-1"
M1108464     2         0.0 +j      0.0        0.0       0.8713
   TERMINAL TOTAL     0.0 +j      0.0        0.0       0.8713

ELEMENT = "Line.293471"
F739845     1         3.3 +j      0.8        3.4       0.9687
F739845     2         3.6 +j      0.9        3.7       0.9685
F739845     3         3.8 +j      1.0        3.9       0.9688
   TERMINAL TOTAL    10.7 +j      2.7       11.0       0.9687
293471     1        -3.3 +j     -0.8        3.4       0.9683
293471     2        -3.6 +j     -0.9        3.7       0.9681
293471     3        -3.8 +j     -1.0        3.9       0.9684
   TERMINAL TOTAL   -10.7 +j     -2.7       11.0       0.9683

ELEMENT = "Line.ln5534965-2"
P827499     1         0.0 +j      0.0        0.0       0.8733
   TERMINAL TOTAL     0.0 +j      0.0        0.0       0.8733

ELEMENT = "Line.ln5655683-1"
M1026657     1         0.0 +j      0.0        0.0       0.8732
   TERMINAL TOTAL     0.0 +j      0.0        0.0       0.8732

ELEMENT = "Line.ln5686247-1"
M1108299     2         0.0 +j      0.0        0.0       0.8733
   TERMINAL TOTAL     0.0 +j      0.0        0.0       0.8733

ELEMENT = "Line.ln6048642-1"
L3198355     2         0.0 +j      0.0        0.0       0.8766
   TERMINAL TOTAL     0.0 +j      0.0        0.0       0.8766

ELEMENT = "Line.ln5928544-3"
N1137994     3         0.0 +j      0.0        0.0       0.8759
   TERMINAL TOTAL     0.0 +j      0.0        0.0       0.8759

ELEMENT = "Line.ln6108172-1"
L2860504     1         0.0 +j      0.0        0.0       0.7826
   TERMINAL TOTAL     0.0 +j      0.0        0.0       0.7826

ELEMENT = "Line.ln5532754-1"
M1026783     1       141.1 +j     34.2      145.2       0.9718
M1026783     2        58.1 +j     14.7       60.0       0.9694
M1026783     3        92.8 +j     23.7       95.8       0.9689
   TERMINAL TOTAL   292.1 +j     72.6      301.0       0.9705
M1026780     1      -141.1 +j    -34.2      145.2       0.9718
M1026780     2       -58.1 +j    -14.7       60.0       0.9694
M1026780     3       -92.8 +j    -23.7       95.8       0.9689
   TERMINAL TOTAL  -292.1 +j    -72.6      301.0       0.9704

ELEMENT = "Line.ln5591834-1"
P895111     3         0.0 +j      0.0        0.0       0.7817
   TERMINAL TOTAL     0.0 +j      0.0        0.0       0.7817

ELEMENT = "Line.ln6347196-2"
N1140819     1        70.4 +j     17.5       72.6       0.9705
N1140819     2        46.8 +j     12.0       48.4       0.9685
N1140819     3        86.6 +j     22.4       89.4       0.9682
   TERMINAL TOTAL   203.8 +j     51.9      210.3       0.9691
M1026700     1       -70.4 +j    -17.5       72.6       0.9705
M1026700     2       -46.8 +j    -12.0       48.4       0.9685
M1026700     3       -86.6 +j    -22.4       89.4       0.9682
   TERMINAL TOTAL  -203.8 +j    -51.9      210.3       0.9691

ELEMENT = "Line.ln5532741-1"
M1089173     3         0.0 +j      0.0        0.0       0.8767
   TERMINAL TOTAL     0.0 +j      0.0        0.0       0.8767

ELEMENT = "Line.ln5804803-1"
M1026344     1         0.0 +j      0.0        0.0       0.7879
   TERMINAL TOTAL     0.0 +j      0.0        0.0       0.7879

ELEMENT = "Line.ln6169248-1"
L2879070     1       159.2 +j     68.3      173.2       0.9190
L2879070     2        67.6 +j     45.2       81.3       0.8315
L2879070     3        -0.8 +j     29.1       29.2      -0.0275
   TERMINAL TOTAL   226.0 +j    142.6      267.2       0.8457
L3216345     1      -159.2 +j    -68.3      173.2       0.9190
L3216345     2       -67.6 +j    -45.2       81.3       0.8314
L3216345     3         0.8 +j    -29.2       29.2      -0.0277
   TERMINAL TOTAL  -225.9 +j   -142.6      267.2       0.8456

ELEMENT = "Line.ln5532786-2"
M1069428     2         0.0 +j      0.0        0.0       0.7899
   TERMINAL TOTAL     0.0 +j      0.0        0.0       0.7899

ELEMENT = "Line.ln5744339-1"
L2991919     1         0.0 +j      0.0        0.0       0.8759
   TERMINAL TOTAL     0.0 +j      0.0        0.0       0.8759

ELEMENT = "Line.ln5531255-3"
N1147857     1         0.0 +j      0.0        0.0       0.8733
   TERMINAL TOTAL     0.0 +j      0.0        0.0       0.8733

ELEMENT = "Line.ln5926308-2"
Q14412     1       100.0 +j     24.3      102.9       0.9716
Q14412     2       120.9 +j     29.7      124.5       0.9710
Q14412     3        49.7 +j     12.0       51.1       0.9721
   TERMINAL TOTAL   270.6 +j     66.1      278.5       0.9714
M1047325     1      -100.0 +j    -24.3      102.9       0.9716
M1047325     2      -120.9 +j    -29.7      124.5       0.9710
M1047325     3       -49.7 +j    -12.0       51.1       0.9720
   TERMINAL TOTAL  -270.5 +j    -66.1      278.5       0.9714

ELEMENT = "Line.ln5683856-3"
N1139263     1         0.0 +j      0.0        0.0       0.8735
   TERMINAL TOTAL     0.0 +j      0.0        0.0       0.8735

ELEMENT = "Line.ln6171502-1"
P827506     1         0.0 +j      0.0        0.0       0.8733
   TERMINAL TOTAL     0.0 +j      0.0        0.0       0.8733

ELEMENT = "Line.ln5593228-1"
M1027019     2         0.0 +j      0.0        0.0       0.7820
   TERMINAL TOTAL     0.0 +j      0.0        0.0       0.7820

ELEMENT = "Line.ln6380800-1"
L3216338     2         0.0 +j      0.0        0.0       0.7820
   TERMINAL TOTAL     0.0 +j      0.0        0.0       0.7820

ELEMENT = "Line.ln6199525-2"
M3037452     1         0.0 +j      0.0        0.0       0.8753
   TERMINAL TOTAL     0.0 +j      0.0        0.0       0.8753

ELEMENT = "Line.ln5772710-2"
L3120376     1         0.0 +j      0.0        0.0       0.8741
   TERMINAL TOTAL     0.0 +j      0.0        0.0       0.8741

ELEMENT = "Line.ln8961760-1"
M1047612     3         0.0 +j      0.0        0.0       0.8709
   TERMINAL TOTAL     0.0 +j      0.0        0.0       0.8709

ELEMENT = "Line.ln6047556-1"
M1089195     3         0.0 +j      0.0        0.0       0.7826
   TERMINAL TOTAL     0.0 +j      0.0        0.0       0.7826

ELEMENT = "Line.ln6138603-1"
M1026946     2         0.0 +j      0.0        0.0       0.8739
   TERMINAL TOTAL     0.0 +j      0.0        0.0       0.8739

ELEMENT = "Line.ln6108139-1"
M1047471     2         0.0 +j      0.0        0.0       0.7817
   TERMINAL TOTAL     0.0 +j      0.0        0.0       0.7817

ELEMENT = "Line.ln6388581-2"
M1047401     1         0.0 +j      0.0        0.0       0.8742
   TERMINAL TOTAL     0.0 +j      0.0        0.0       0.8742

ELEMENT = "Line.ln5774460-1"
L3122820     1         0.0 +j      0.0        0.0       0.7827
   TERMINAL TOTAL     0.0 +j      0.0        0.0       0.7827

ELEMENT = "Line.ln5624387-1"
M1108360     3         0.0 +j      0.0        0.0       0.8735
   TERMINAL TOTAL     0.0 +j      0.0        0.0       0.8735

ELEMENT = "Line.ln6137087-1"
L2801950     3         0.0 +j      0.0        0.0       0.8930
   TERMINAL TOTAL     0.0 +j      0.0        0.0       0.8930

ELEMENT = "Line.ln6077809-1"
L2766746     3         0.0 +j      0.0        0.0       0.7815
   TERMINAL TOTAL     0.0 +j      0.0        0.0       0.7815

ELEMENT = "Line.ln6440079-1"
L2895496     3         0.0 +j      0.0        0.0       0.7816
   TERMINAL TOTAL     0.0 +j      0.0        0.0       0.7816

ELEMENT = "Line.ln5804794-1"
M1069181     1         0.0 +j      0.0        0.0       0.8733
   TERMINAL TOTAL     0.0 +j      0.0        0.0       0.8733

ELEMENT = "Line.ln5654484-1"
L3179682     3         0.0 +j      0.0        0.0       0.8735
   TERMINAL TOTAL     0.0 +j      0.0        0.0       0.8735

ELEMENT = "Line.ln5774465-1"
L3066816     1         0.0 +j      0.0        0.0       0.7821
   TERMINAL TOTAL     0.0 +j      0.0        0.0       0.7821

ELEMENT = "Line.ln5473349-1"
M1108529     1       622.8 +j   -247.1      670.0      -0.9295
M1108529     2       679.6 +j   -232.7      718.3      -0.9461
M1108529     3       638.2 +j   -235.8      680.4      -0.9380
   TERMINAL TOTAL  1940.6 +j   -715.6     2068.3      -0.9382
M1108532     1      -622.8 +j    247.1      670.0      -0.9295
M1108532     2      -679.5 +j    232.8      718.3      -0.9460
M1108532     3      -638.2 +j    235.9      680.4      -0.9380
   TERMINAL TOTAL -1940.5 +j    715.8     2068.3      -0.9382

ELEMENT = "Line.ln6169253-1"
L2766723     1         0.0 +j      0.0        0.0       0.8738
   TERMINAL TOTAL     0.0 +j      0.0        0.0       0.8738

ELEMENT = "Line.ln6350536-1"
L2673312     1         0.0 +j      0.0        0.0       0.7851
   TERMINAL TOTAL     0.0 +j      0.0        0.0       0.7851

ELEMENT = "Line.ln6048523-1"
M1166391     3         0.0 +j      0.0        0.0       0.8759
   TERMINAL TOTAL     0.0 +j      0.0        0.0       0.8759

ELEMENT = "Line.ln5594152-1"
L2861157     3         0.0 +j      0.0        0.0       0.7815
   TERMINAL TOTAL     0.0 +j      0.0        0.0       0.7815

ELEMENT = "Line.ln5865248-1"
M1047346     1       116.8 +j     28.3      120.1       0.9719
M1047346     2       126.6 +j     31.2      130.4       0.9709
M1047346     3        49.7 +j     11.9       51.1       0.9724
   TERMINAL TOTAL   293.1 +j     71.4      301.7       0.9716
M1047345     1      -116.8 +j    -28.3      120.1       0.9719
M1047345     2      -126.6 +j    -31.2      130.4       0.9709
M1047345     3       -49.7 +j    -11.9       51.1       0.9723
   TERMINAL TOTAL  -293.1 +j    -71.5      301.6       0.9715

ELEMENT = "Line.ln6046143-1"
L2989596     2         0.0 +j      0.0        0.0       0.8781
   TERMINAL TOTAL     0.0 +j      0.0        0.0       0.8781

ELEMENT = "Line.ln5803287-1"
M1108328     3         0.0 +j      0.0        0.0       0.7815
   TERMINAL TOTAL     0.0 +j      0.0        0.0       0.7815

ELEMENT = "Line.ln5589094-1"
L2786204     3         0.0 +j      0.0        0.0       0.8733
   TERMINAL TOTAL     0.0 +j      0.0        0.0       0.8733

ELEMENT = "Line.ln5954983-1"
P901972     1         0.0 +j      0.0        0.0       0.8767
   TERMINAL TOTAL     0.0 +j      0.0        0.0       0.8767

ELEMENT = "Line.ln5924696-2"
M1047702     1         0.0 +j      0.0        0.0       0.7823
   TERMINAL TOTAL     0.0 +j      0.0        0.0       0.7823

ELEMENT = "Line.ln6506311-4"
L2767340     1        -0.0 +j     -0.0        0.0       0.0269
L2767340     2        -0.0 +j     -0.0        0.0       0.0310
L2767340     3         2.1 +j      0.5        2.2       0.9738
   TERMINAL TOTAL     2.1 +j      0.5        2.2       0.9739
M3037449     1         0.0 +j     -0.0        0.0      -0.9042
M3037449     2         0.0 +j      0.0        0.0       0.9973
M3037449     3        -2.1 +j     -0.5        2.2       0.9738
   TERMINAL TOTAL    -2.1 +j     -0.5        2.2       0.9738

ELEMENT = "Line.ln5653493-1"
M1047457     2         0.0 +j      0.0        0.0       0.7814
   TERMINAL TOTAL     0.0 +j      0.0        0.0       0.7814

ELEMENT = "Line.ln5684836-1"
L2674027     1       623.0 +j   -246.6      670.0      -0.9298
L2674027     2       679.9 +j   -232.2      718.4      -0.9463
L2674027     3       670.8 +j   -226.9      708.1      -0.9473
   TERMINAL TOTAL  1973.7 +j   -705.7     2096.0      -0.9416
L2692633     1      -622.9 +j    246.7      670.0      -0.9297
L2692633     2      -679.8 +j    232.4      718.4      -0.9462
L2692633     3      -670.7 +j    227.2      708.1      -0.9472
   TERMINAL TOTAL -1973.4 +j    706.3     2096.0      -0.9415

ELEMENT = "Line.ln5715016-3"
N1142108     1         0.0 +j      0.0        0.0       0.7831
   TERMINAL TOTAL     0.0 +j      0.0        0.0       0.7831

ELEMENT = "Line.ln6138614-1"
M1069135     1       123.6 +j   -296.2      321.0      -0.3851
M1069135     2       126.9 +j   -293.9      320.2      -0.3964
M1069135     3        61.3 +j   -316.1      322.0      -0.1903
   TERMINAL TOTAL   311.8 +j   -906.2      958.4      -0.3253
R18242     1      -123.4 +j    296.2      320.9      -0.3845
R18242     2      -126.7 +j    294.0      320.1      -0.3958
R18242     3       -61.1 +j    316.1      322.0      -0.1897
   TERMINAL TOTAL  -311.2 +j    906.4      958.3      -0.3247

ELEMENT = "Line.ln6077781-2"
M1047534     1       538.4 +j    161.7      562.1       0.9578
M1047534     2       505.7 +j    153.6      528.5       0.9568
M1047534     3       576.4 +j    179.6      603.7       0.9547
   TERMINAL TOTAL  1620.5 +j    494.8     1694.3       0.9564
N1136663     1      -538.1 +j   -161.4      561.7       0.9579
N1136663     2      -505.4 +j   -153.4      528.2       0.9569
N1136663     3      -576.0 +j   -179.2      603.2       0.9549
   TERMINAL TOTAL -1619.4 +j   -494.0     1693.1       0.9565

ELEMENT = "Line.ln5675121-1"
M1108508     3         0.0 +j      0.0        0.0       0.7843
   TERMINAL TOTAL     0.0 +j      0.0        0.0       0.7843

ELEMENT = "Line.ln5773046-1"
M1069560     2         0.0 +j      0.0        0.0       0.8733
   TERMINAL TOTAL     0.0 +j      0.0        0.0       0.8733

ELEMENT = "Line.ln6380809-2"
L2973153     1        57.0 +j     13.4       58.5       0.9734
L2973153     2       178.5 +j     43.7      183.8       0.9713
L2973153     3        21.1 +j      5.1       21.7       0.9724
   TERMINAL TOTAL   256.6 +j     62.2      264.0       0.9719
N1136998     1       -57.0 +j    -13.4       58.5       0.9734
N1136998     2      -178.5 +j    -43.7      183.8       0.9713
N1136998     3       -21.1 +j     -5.1       21.7       0.9724
   TERMINAL TOTAL  -256.6 +j    -62.2      264.0       0.9719

ELEMENT = "Line.ln6018326-1"
L2898515     3         0.0 +j      0.0        0.0       0.8737
   TERMINAL TOTAL     0.0 +j      0.0        0.0       0.8737

ELEMENT = "Line.ln5472356-1"
M1047442     2         0.0 +j      0.0        0.0       0.8782
   TERMINAL TOTAL     0.0 +j      0.0        0.0       0.8782

ELEMENT = "Line.ln6139641-1"
M1142871     1       849.0 +j   -180.3      867.9      -0.9782
M1142871     2       952.4 +j   -149.3      964.0      -0.9879
M1142871     3       804.7 +j   -184.8      825.7      -0.9746
   TERMINAL TOTAL  2606.1 +j   -514.4     2656.4      -0.9811
M1142874     1      -848.9 +j    180.4      867.8      -0.9781
M1142874     2      -952.3 +j    149.6      963.9      -0.9879
M1142874     3      -804.7 +j    185.0      825.7      -0.9746
   TERMINAL TOTAL -2605.8 +j    515.0     2656.2      -0.9810

ELEMENT = "Line.ln6018341-1"
L2955081     1       250.1 +j   -264.9      364.3      -0.6864
L2955081     2       313.9 +j   -246.9      399.4      -0.7861
L2955081     3       397.5 +j   -232.9      460.8      -0.8628
   TERMINAL TOTAL   961.5 +j   -744.7     1216.2      -0.7906
M1108315     1      -250.0 +j    265.0      364.4      -0.6863
M1108315     2      -313.9 +j    246.9      399.4      -0.7860
M1108315     3      -397.5 +j    233.1      460.8      -0.8626
   TERMINAL TOTAL  -961.4 +j    745.0     1216.3      -0.7905

ELEMENT = "Line.ln6017302-1"
L2973162     1         5.1 +j      1.2        5.2       0.9732
L2973162     2        96.6 +j     23.9       99.5       0.9707
L2973162     3         2.1 +j      0.4        2.2       0.9784
   TERMINAL TOTAL   103.8 +j     25.5      106.9       0.9710
M1026333     1        -5.1 +j     -1.2        5.2       0.9728
M1026333     2       -96.5 +j    -23.9       99.5       0.9707
M1026333     3        -2.1 +j     -0.5        2.2       0.9773
   TERMINAL TOTAL  -103.7 +j    -25.6      106.8       0.9709

ELEMENT = "Line.ln6199505-1"
M1009832     2         0.0 +j      0.0        0.0       0.8741
   TERMINAL TOTAL     0.0 +j      0.0        0.0       0.8741

ELEMENT = "Line.ln5682327-1"
M1026854     1         0.0 +j      0.0        0.0       0.8732
   TERMINAL TOTAL     0.0 +j      0.0        0.0       0.8732

ELEMENT = "Line.ln6290243-1"
M1026485     2         0.0 +j      0.0        0.0       0.7817
   TERMINAL TOTAL     0.0 +j      0.0        0.0       0.7817

ELEMENT = "Line.x8223_48332_sw"
D6413567-3_INT     1       198.0 +j   -278.0      341.3      -0.5801
D6413567-3_INT     2       239.1 +j   -265.3      357.2      -0.6695
D6413567-3_INT     3        81.2 +j   -310.7      321.2      -0.2529
   TERMINAL TOTAL   518.3 +j   -854.0      999.0      -0.5188
E182724     1      -198.0 +j    278.0      341.3      -0.5801
E182724     2      -239.1 +j    265.3      357.2      -0.6695
E182724     3       -81.2 +j    310.7      321.2      -0.2529
   TERMINAL TOTAL  -518.3 +j    854.0      999.0      -0.5188

ELEMENT = "Line.ln6413567-3"
N1139541     1       198.0 +j   -278.0      341.3      -0.5802
N1139541     2       239.2 +j   -265.3      357.2      -0.6696
N1139541     3        81.3 +j   -310.7      321.2      -0.2531
   TERMINAL TOTAL   518.5 +j   -854.0      999.1      -0.5190
D6413567-3_INT     1      -198.0 +j    278.0      341.3      -0.5801
D6413567-3_INT     2      -239.1 +j    265.3      357.2      -0.6695
D6413567-3_INT     3       -81.2 +j    310.7      321.2      -0.2529
   TERMINAL TOTAL  -518.3 +j    854.0      999.0      -0.5188

ELEMENT = "Line.ln5591731-3"
M4122658     1       682.1 +j   -229.6      719.7      -0.9477
M4122658     2       690.4 +j   -227.3      726.8      -0.9498
M4122658     3       677.9 +j   -223.2      713.7      -0.9498
   TERMINAL TOTAL  2050.4 +j   -680.2     2160.3      -0.9491
L2933135     1      -682.1 +j    229.7      719.7      -0.9477
L2933135     2      -690.4 +j    227.3      726.8      -0.9498
L2933135     3      -677.9 +j    223.2      713.7      -0.9498
   TERMINAL TOTAL -2050.4 +j    680.2     2160.3      -0.9491

ELEMENT = "Line.ln5653470-1"
M1026702     1         3.3 +j      0.8        3.4       0.9690
M1026702     2         3.6 +j      0.9        3.7       0.9690
M1026702     3         3.8 +j      1.0        3.9       0.9690
   TERMINAL TOTAL    10.7 +j      2.7       11.0       0.9690
L2729414     1        -3.3 +j     -0.8        3.4       0.9683
L2729414     2        -3.6 +j     -0.9        3.7       0.9683
L2729414     3        -3.8 +j     -1.0        3.9       0.9683
   TERMINAL TOTAL   -10.7 +j     -2.7       11.0       0.9683

ELEMENT = "Line.ln6017316-1"
L2729430     2         0.0 +j      0.0        0.0       0.8733
   TERMINAL TOTAL     0.0 +j      0.0        0.0       0.8733

ELEMENT = "Line.ln5926299-1"
M1026972     2         0.0 +j      0.0        0.0       0.7817
   TERMINAL TOTAL     0.0 +j      0.0        0.0       0.7817

ELEMENT = "Line.ln5683831-1"
L2860490     1       116.8 +j     28.3      120.2       0.9720
L2860490     2       126.7 +j     31.2      130.5       0.9709
L2860490     3        61.1 +j     14.8       62.8       0.9718
   TERMINAL TOTAL   304.6 +j     74.3      313.5       0.9715
L3104134     1      -116.8 +j    -28.3      120.2       0.9720
L3104134     2      -126.6 +j    -31.2      130.4       0.9709
L3104134     3       -61.1 +j    -14.8       62.8       0.9717
   TERMINAL TOTAL  -304.5 +j    -74.3      313.4       0.9715

ELEMENT = "Line.ln6352700-1"
M1089144     1         0.0 +j      0.0        0.0       0.7814
   TERMINAL TOTAL     0.0 +j      0.0        0.0       0.7814

ELEMENT = "Line.ln6047570-1"
M1089118     1         0.0 +j      0.0        0.0       0.8748
   TERMINAL TOTAL     0.0 +j      0.0        0.0       0.8748

ELEMENT = "Line.ln5624342-1"
M1108505     1       626.5 +j   -245.3      672.8      -0.9312
M1108505     2       689.4 +j   -229.2      726.5      -0.9489
M1108505     3       671.0 +j   -226.4      708.1      -0.9475
   TERMINAL TOTAL  1986.9 +j   -700.8     2106.9      -0.9431
L2955047     1      -626.4 +j    245.4      672.8      -0.9311
L2955047     2      -689.3 +j    229.3      726.5      -0.9489
L2955047     3      -670.9 +j    226.6      708.1      -0.9474
   TERMINAL TOTAL -1986.7 +j    701.3     2106.8      -0.9430

ELEMENT = "Line.ln6259992-1"
M1089148     1         0.0 +j      0.0        0.0       0.8934
   TERMINAL TOTAL     0.0 +j      0.0        0.0       0.8934

ELEMENT = "Line.ln5841919-1"
M1026745     2         0.0 +j      0.0        0.0       0.7831
   TERMINAL TOTAL     0.0 +j      0.0        0.0       0.7831

ELEMENT = "Line.ln6380811-1"
L2710512     2         0.0 +j      0.0        0.0       0.8733
   TERMINAL TOTAL     0.0 +j      0.0        0.0       0.8733

ELEMENT = "Line.ln5683832-1"
M1047342     1         0.0 +j      0.0        0.0       0.7823
   TERMINAL TOTAL     0.0 +j      0.0        0.0       0.7823

ELEMENT = "Line.ln6077778-1"
M1069192     1         0.0 +j      0.0        0.0       0.7824
   TERMINAL TOTAL     0.0 +j      0.0        0.0       0.7824

ELEMENT = "Line.ln5561442-2"
L3214071     1       842.3 +j   -184.0      862.2      -0.9770
L3214071     2       950.6 +j   -153.2      962.8      -0.9873
L3214071     3       790.9 +j   -190.5      813.5      -0.9722
   TERMINAL TOTAL  2583.7 +j   -527.7     2637.1      -0.9798
M1125952     1      -842.2 +j    184.3      862.1      -0.9769
M1125952     2      -950.4 +j    153.5      962.7      -0.9872
M1125952     3      -790.8 +j    190.7      813.5      -0.9721
   TERMINAL TOTAL -2583.4 +j    528.5     2636.9      -0.9797

ELEMENT = "Line.ln6259983-1"
M1027101     2         0.0 +j      0.0        0.0       0.7832
   TERMINAL TOTAL     0.0 +j      0.0        0.0       0.7832

ELEMENT = "Line.ln5865244-1"
L2710517     1         0.0 +j      0.0        0.0       0.8733
   TERMINAL TOTAL     0.0 +j      0.0        0.0       0.8733

ELEMENT = "Line.ln6350555-1"
M1069662     2         0.0 +j      0.0        0.0       0.7826
   TERMINAL TOTAL     0.0 +j      0.0        0.0       0.7826

ELEMENT = "Line.ln5714039-1"
M1026931     1         0.0 +j      0.0        0.0       0.8733
   TERMINAL TOTAL     0.0 +j      0.0        0.0       0.8733

ELEMENT = "Line.ln5889821-1"
L3142049     1       665.4 +j   -234.7      705.6      -0.9430
L3142049     2       689.9 +j   -228.3      726.7      -0.9494
L3142049     3       672.5 +j   -225.3      709.3      -0.9482
   TERMINAL TOTAL  2027.8 +j   -688.3     2141.4      -0.9469
M1108493     1      -665.2 +j    235.0      705.5      -0.9429
M1108493     2      -689.7 +j    228.5      726.6      -0.9492
M1108493     3      -672.4 +j    225.6      709.3      -0.9481
   TERMINAL TOTAL -2027.4 +j    689.1     2141.3      -0.9468

ELEMENT = "Line.ln5804791-1"
M1069169     1       149.5 +j   -290.2      326.4      -0.4579
M1069169     2       238.8 +j   -265.4      357.0      -0.6688
M1069169     3        81.0 +j   -310.8      321.2      -0.2522
   TERMINAL TOTAL   469.3 +j   -866.4      985.4      -0.4762
L3010556     1      -149.3 +j    290.2      326.4      -0.4574
L3010556     2      -238.5 +j    265.5      356.9      -0.6683
L3010556     3       -80.8 +j    310.9      321.2      -0.2516
   TERMINAL TOTAL  -468.6 +j    866.6      985.2      -0.4756

ELEMENT = "Line.ln5653486-1"
L2991933     3         0.0 +j      0.0        0.0       0.8734
   TERMINAL TOTAL     0.0 +j      0.0        0.0       0.8734

ELEMENT = "Line.ln5926286-1"
L3216336     1         0.0 +j      0.0        0.0       0.8734
   TERMINAL TOTAL     0.0 +j      0.0        0.0       0.8734

ELEMENT = "Line.ln6318859-1"
L2897772     1         0.0 +j      0.0        0.0       0.8732
   TERMINAL TOTAL     0.0 +j      0.0        0.0       0.8732

ELEMENT = "Line.ln5926316-1"
L2766732     2         0.0 +j      0.0        0.0       0.7814
   TERMINAL TOTAL     0.0 +j      0.0        0.0       0.7814

ELEMENT = "Line.ln5591703-1"
L2804269     2         0.0 +j      0.0        0.0       0.8735
   TERMINAL TOTAL     0.0 +j      0.0        0.0       0.8735

ELEMENT = "Line.ln5531333-1"
M1126016     1         0.0 +j      0.0        0.0       0.8733
   TERMINAL TOTAL     0.0 +j      0.0        0.0       0.8733

ELEMENT = "Line.ln6047581-1"
M1026330     2         0.0 +j      0.0        0.0       0.8771
   TERMINAL TOTAL     0.0 +j      0.0        0.0       0.8771

ELEMENT = "Line.ln6349077-1"
P901912     2         0.0 +j      0.0        0.0       0.7814
   TERMINAL TOTAL     0.0 +j      0.0        0.0       0.7814

ELEMENT = "Line.ln6350574-1"
M1108381     1        23.2 +j      5.8       23.9       0.9698
M1108381     2        24.5 +j      6.2       25.2       0.9692
M1108381     3        23.1 +j      5.8       23.8       0.9700
   TERMINAL TOTAL    70.7 +j     17.8       73.0       0.9697
L3254237     1       -23.2 +j     -5.8       23.9       0.9696
L3254237     2       -24.5 +j     -6.2       25.2       0.9690
L3254237     3       -23.1 +j     -5.8       23.8       0.9698
   TERMINAL TOTAL   -70.7 +j    -17.9       73.0       0.9695

ELEMENT = "Line.ln6320343-1"
L2804262     1         0.0 +j      0.0        0.0       0.8733
   TERMINAL TOTAL     0.0 +j      0.0        0.0       0.8733

ELEMENT = "Line.ln81048100-5"
N1230123     2         0.0 +j      0.0        0.0       0.8709
   TERMINAL TOTAL     0.0 +j      0.0        0.0       0.8709

ELEMENT = "Line.ln6348946-1"
M1069519     2         0.0 +j      0.0        0.0       0.7815
   TERMINAL TOTAL     0.0 +j      0.0        0.0       0.7815

ELEMENT = "Line.ln5744351-1"
L2897790     3         0.0 +j      0.0        0.0       0.7821
   TERMINAL TOTAL     0.0 +j      0.0        0.0       0.7821

ELEMENT = "Line.ln5472342-1"
M1026931     1         0.0 +j      0.0        0.0       0.7826
   TERMINAL TOTAL     0.0 +j      0.0        0.0       0.7826

ELEMENT = "Line.ln5621849-1"
P901931     3         0.0 +j      0.0        0.0       0.7814
   TERMINAL TOTAL     0.0 +j      0.0        0.0       0.7814

ELEMENT = "Line.ln6379375-1"
M1010013     1         0.0 +j      0.0        0.0       0.7826
   TERMINAL TOTAL     0.0 +j      0.0        0.0       0.7826

ELEMENT = "Line.ln6028890-1"
M1089145     1         5.1 +j      1.4        5.3       0.9660
M1089145     2         7.6 +j      2.1        7.9       0.9650
M1089145     3         5.9 +j      1.6        6.1       0.9665
   TERMINAL TOTAL    18.6 +j      5.0       19.2       0.9657
L3215385     1        -5.1 +j     -1.4        5.3       0.9657
L3215385     2        -7.6 +j     -2.1        7.9       0.9647
L3215385     3        -5.9 +j     -1.6        6.1       0.9662
   TERMINAL TOTAL   -18.6 +j     -5.0       19.2       0.9654

ELEMENT = "Line.ln6380822-1"
M1026854     1        70.9 +j     46.0       84.5       0.8387
M1026854     2        62.0 +j     43.8       75.9       0.8169
M1026854     3        -4.6 +j     28.3       28.7      -0.1609
   TERMINAL TOTAL   128.3 +j    118.1      174.4       0.7357
M1026852     1       -70.9 +j    -46.0       84.5       0.8386
M1026852     2       -62.0 +j    -43.8       75.9       0.8168
M1026852     3         4.6 +j    -28.3       28.7      -0.1609
   TERMINAL TOTAL  -128.3 +j   -118.2      174.4       0.7354

ELEMENT = "Line.ln5835131-1"
L2935549     1        56.5 +j     13.9       58.2       0.9711
L2935549     2       132.2 +j     32.9      136.3       0.9704
L2935549     3       222.3 +j     58.7      229.9       0.9669
   TERMINAL TOTAL   411.0 +j    105.5      424.4       0.9686
M1069420     1       -56.5 +j    -13.9       58.2       0.9710
M1069420     2      -132.2 +j    -32.9      136.3       0.9703
M1069420     3      -222.2 +j    -58.6      229.8       0.9669
   TERMINAL TOTAL  -411.0 +j   -105.5      424.3       0.9686

ELEMENT = "Line.ln5803262-7"
L3157708     3         0.0 +j      0.0        0.0       0.8736
   TERMINAL TOTAL     0.0 +j      0.0        0.0       0.8736

ELEMENT = "Line.ln81048089-1"
M1108413     1         0.0 +j      0.0        0.0       0.8711
   TERMINAL TOTAL     0.0 +j      0.0        0.0       0.8711

ELEMENT = "Line.ln6201699-1"
P827532     1         0.0 +j      0.0        0.0       0.7814
   TERMINAL TOTAL     0.0 +j      0.0        0.0       0.7814

ELEMENT = "Line.ln5746548-1"
E182732     1       133.3 +j     32.3      137.2       0.9719
E182732     2        58.1 +j     14.8       60.0       0.9691
E182732     3        92.7 +j     23.7       95.7       0.9687
   TERMINAL TOTAL   284.1 +j     70.8      292.8       0.9703
M1026760     1      -133.3 +j    -32.3      137.2       0.9719
M1026760     2       -58.1 +j    -14.8       60.0       0.9691
M1026760     3       -92.7 +j    -23.7       95.7       0.9687
   TERMINAL TOTAL  -284.1 +j    -70.8      292.8       0.9703

ELEMENT = "Line.ln5835174-1"
L3048205     3         0.0 +j      0.0        0.1       0.8741
   TERMINAL TOTAL     0.0 +j      0.0        0.1       0.8741

ELEMENT = "Line.ln6505947-4"
M3036169     1         0.0 +j      0.0        0.0       0.8740
   TERMINAL TOTAL     0.0 +j      0.0        0.0       0.8740

ELEMENT = "Line.ln5683833-1"
L3178981     2         0.1 +j      0.0        0.1       0.8733
   TERMINAL TOTAL     0.1 +j      0.0        0.1       0.8733

ELEMENT = "Line.ln5561439-3"
M1069519     1        17.7 +j      4.2       18.2       0.9728
M1069519     2       146.9 +j     37.0      151.5       0.9697
M1069519     3        13.5 +j      3.2       13.9       0.9726
   TERMINAL TOTAL   178.1 +j     44.5      183.6       0.9702
N1136354     1       -17.7 +j     -4.3       18.2       0.9724
N1136354     2      -146.9 +j    -37.0      151.5       0.9697
N1136354     3       -13.5 +j     -3.3       13.9       0.9720
   TERMINAL TOTAL  -178.1 +j    -44.5      183.6       0.9701

ELEMENT = "Line.ln6109190-1"
L2879794     1         0.0 +j      0.0        0.0       0.8733
   TERMINAL TOTAL     0.0 +j      0.0        0.0       0.8733

ELEMENT = "Line.ln6258435-2"
M1047702     1         0.0 +j      0.0        0.0       0.7815
   TERMINAL TOTAL     0.0 +j      0.0        0.0       0.7815

ELEMENT = "Line.ln5804819-1"
M1069565     2         0.0 +j      0.0        0.0       0.8761
   TERMINAL TOTAL     0.0 +j      0.0        0.0       0.8761

ELEMENT = "Line.ln5593215-1"
L3104114     2         0.0 +j      0.0        0.0       0.8766
   TERMINAL TOTAL     0.0 +j      0.0        0.0       0.8766

ELEMENT = "Line.ln5833717-1"
L2745848     1        73.2 +j     17.8       75.3       0.9717
L2745848     2       173.2 +j     43.3      178.5       0.9702
L2745848     3       245.6 +j     65.1      254.1       0.9666
   TERMINAL TOTAL   492.0 +j    126.2      507.9       0.9687
L2673308     1       -73.2 +j    -17.8       75.3       0.9717
L2673308     2      -173.2 +j    -43.3      178.5       0.9702
L2673308     3      -245.6 +j    -65.1      254.1       0.9667
   TERMINAL TOTAL  -491.9 +j   -126.1      507.9       0.9687

ELEMENT = "Line.ln6199557-1"
L2673308     1        73.2 +j     17.8       75.3       0.9717
L2673308     2       167.6 +j     41.8      172.7       0.9703
L2673308     3       245.6 +j     65.1      254.1       0.9667
   TERMINAL TOTAL   486.3 +j    124.6      502.1       0.9687
L2991939     1       -73.2 +j    -17.8       75.3       0.9716
L2991939     2      -167.5 +j    -41.8      172.7       0.9703
L2991939     3      -245.5 +j    -65.0      254.0       0.9667
   TERMINAL TOTAL  -486.2 +j   -124.6      501.9       0.9687

ELEMENT = "Line.ln5744332-1"
L2916606     3         0.0 +j      0.0        0.0       0.8741
   TERMINAL TOTAL     0.0 +j      0.0        0.0       0.8741

ELEMENT = "Line.ln5558790-1"
M1142851     1       862.1 +j   -175.3      879.7      -0.9800
M1142851     2       953.7 +j   -146.5      964.9      -0.9884
M1142851     3       816.5 +j   -180.3      836.1      -0.9765
   TERMINAL TOTAL  2632.3 +j   -502.1     2679.7      -0.9823
196-31070     1      -862.1 +j    175.3      879.7      -0.9799
196-31070     2      -953.7 +j    146.6      964.9      -0.9884
196-31070     3      -816.5 +j    180.4      836.1      -0.9765
   TERMINAL TOTAL -2632.2 +j    502.3     2679.7      -0.9823

ELEMENT = "Line.ln6078692-1"
M1209822     3         0.0 +j      0.0        0.0       0.8733
   TERMINAL TOTAL     0.0 +j      0.0        0.0       0.8733

ELEMENT = "Line.ln5956482-1"
M1069550     2         0.0 +j      0.0        0.0       0.8766
   TERMINAL TOTAL     0.0 +j      0.0        0.0       0.8766

ELEMENT = "Line.ln5593225-1"
L2860483     2         0.0 +j      0.0        0.0       0.7822
   TERMINAL TOTAL     0.0 +j      0.0        0.0       0.7822

ELEMENT = "Line.ln6900591-26"
L3649299     1         0.0 +j      0.0        0.0       0.7814
   TERMINAL TOTAL     0.0 +j      0.0        0.0       0.7814

ELEMENT = "Line.ln5952393-1"
P895106     2         0.0 +j      0.0        0.0       0.8733
   TERMINAL TOTAL     0.0 +j      0.0        0.0       0.8733

ELEMENT = "Line.ln6350531-1"
M1047824     2         0.0 +j      0.0        0.0       0.8741
   TERMINAL TOTAL     0.0 +j      0.0        0.0       0.8741

ELEMENT = "Line.ln5965099-10"
M1069350     1        13.4 +j      3.1       13.8       0.9744
M1069350     2        -0.0 +j     -0.0        0.0       0.0273
M1069350     3       215.8 +j     56.6      223.1       0.9673
   TERMINAL TOTAL   229.2 +j     59.6      236.8       0.9678
N1144668     1       -13.4 +j     -3.1       13.8       0.9743
N1144668     2         0.0 +j      0.0        0.0       0.0272
N1144668     3      -215.8 +j    -56.6      223.1       0.9673
   TERMINAL TOTAL  -229.2 +j    -59.6      236.8       0.9678

ELEMENT = "Line.ln6047568-1"
L2879072     2         0.1 +j      0.0        0.1       0.8759
   TERMINAL TOTAL     0.1 +j      0.0        0.1       0.8759

ELEMENT = "Line.ln5926292-1"
M1108274     2         0.0 +j      0.0        0.0       0.7821
   TERMINAL TOTAL     0.0 +j      0.0        0.0       0.7821

ELEMENT = "Line.ln6380806-1"
L3235244     1         0.0 +j      0.0        0.0       0.8735
   TERMINAL TOTAL     0.0 +j      0.0        0.0       0.8735

ELEMENT = "Line.ln6341781-3"
N1147862     1         0.0 +j      0.0        0.0       0.7825
   TERMINAL TOTAL     0.0 +j      0.0        0.0       0.7825

ELEMENT = "Line.ln8979367-1"
M1069247     1         0.0 +j      0.0        0.0       0.8740
   TERMINAL TOTAL     0.0 +j      0.0        0.0       0.8740

ELEMENT = "Line.ln6018340-1"
L2786273     2         0.0 +j      0.0        0.0       0.8737
   TERMINAL TOTAL     0.0 +j      0.0        0.0       0.8737

ELEMENT = "Line.ln6380847-1"
L3254238     1        64.7 +j     15.8       66.6       0.9713
L3254238     2       111.8 +j     27.6      115.1       0.9708
L3254238     3        44.6 +j     10.9       45.9       0.9715
   TERMINAL TOTAL   221.1 +j     54.3      227.6       0.9711
M1047303     1       -64.7 +j    -15.9       66.6       0.9712
M1047303     2      -111.7 +j    -27.6      115.1       0.9708
M1047303     3       -44.6 +j    -10.9       45.9       0.9714
   TERMINAL TOTAL  -221.0 +j    -54.4      227.6       0.9711

ELEMENT = "Line.ln8961797-1"
M1047633     3         0.0 +j      0.0        0.0       0.8737
   TERMINAL TOTAL     0.0 +j      0.0        0.0       0.8737

ELEMENT = "Line.ln6077797-1"
M1069627     2         0.0 +j      0.0        0.0       0.8735
   TERMINAL TOTAL     0.0 +j      0.0        0.0       0.8735

ELEMENT = "Line.ln6077773-1"
M1089097     2         0.0 +j      0.0        0.0       0.8742
   TERMINAL TOTAL     0.0 +j      0.0        0.0       0.8742

ELEMENT = "Line.ln5837496-4"
N1142101     1         0.0 +j      0.0        0.0       0.7818
   TERMINAL TOTAL     0.0 +j      0.0        0.0       0.7818

ELEMENT = "Line.ln5623392-1"
L3066810     3         0.0 +j      0.0        0.0       0.8736
   TERMINAL TOTAL     0.0 +j      0.0        0.0       0.8736

ELEMENT = "Line.ln5624380-1"
M1209758     2         0.0 +j      0.0        0.0       0.7820
   TERMINAL TOTAL     0.0 +j      0.0        0.0       0.7820

ELEMENT = "Line.ln6422809-2"
M1047528     1       224.5 +j     83.6      239.6       0.9371
M1047528     2       252.0 +j     90.2      267.6       0.9415
M1047528     3       157.8 +j     69.1      172.2       0.9161
   TERMINAL TOTAL   634.3 +j    242.9      679.2       0.9339
L2858166     1      -224.5 +j    -83.6      239.6       0.9371
L2858166     2      -252.0 +j    -90.2      267.6       0.9415
L2858166     3      -157.8 +j    -69.1      172.2       0.9161
   TERMINAL TOTAL  -634.2 +j   -242.9      679.2       0.9339

ELEMENT = "Line.ln5799561-1"
M1142843     1       296.3 +j   -252.0      389.0      -0.7618
M1142843     2       368.6 +j   -233.0      436.1      -0.8453
M1142843     3       440.9 +j   -219.7      492.6      -0.8950
   TERMINAL TOTAL  1105.9 +j   -704.8     1311.4      -0.8433
L3081380     1      -296.3 +j    252.1      389.1      -0.7616
L3081380     2      -368.6 +j    233.1      436.1      -0.8452
L3081380     3      -440.8 +j    219.9      492.6      -0.8949
   TERMINAL TOTAL -1105.7 +j    705.1     1311.4      -0.8432

ELEMENT = "Line.ln6229818-1"
L2804272     2         0.0 +j      0.0        0.0       0.7830
   TERMINAL TOTAL     0.0 +j      0.0        0.0       0.7830

ELEMENT = "Line.ln5593230-1"
M1069393     2         0.0 +j      0.0        0.0       0.8732
   TERMINAL TOTAL     0.0 +j      0.0        0.0       0.8732

ELEMENT = "Line.ln5563901-3"
N1142104     1       665.0 +j   -235.3      705.5      -0.9427
N1142104     2       689.5 +j   -228.9      726.5      -0.9491
N1142104     3       671.0 +j   -226.2      708.1      -0.9476
   TERMINAL TOTAL  2025.6 +j   -690.5     2140.1      -0.9465
M1108500     1      -665.0 +j    235.5      705.4      -0.9426
M1108500     2      -689.5 +j    229.1      726.5      -0.9490
M1108500     3      -671.0 +j    226.3      708.1      -0.9476
   TERMINAL TOTAL -2025.4 +j    690.9     2140.0      -0.9465

ELEMENT = "Line.ln6320339-1"
L3216348     1         0.0 +j      0.0        0.0       0.8771
   TERMINAL TOTAL     0.0 +j      0.0        0.0       0.8771

ELEMENT = "Line.ln5986927-1"
M1026925     1         0.0 +j      0.0        0.0       0.8734
   TERMINAL TOTAL     0.0 +j      0.0        0.0       0.8734

ELEMENT = "Line.ln6047567-1"
M1047447     2         0.0 +j      0.0        0.0       0.8771
   TERMINAL TOTAL     0.0 +j      0.0        0.0       0.8771

ELEMENT = "Line.ln5714047-1"
L3235246     2         0.0 +j      0.0        0.0       0.8733
   TERMINAL TOTAL     0.0 +j      0.0        0.0       0.8733

ELEMENT = "Line.ln5563934-1"
M1125911     2         0.0 +j      0.0        0.0       0.8734
   TERMINAL TOTAL     0.0 +j      0.0        0.0       0.8734

ELEMENT = "Line.ln6169249-3"
N1147863     3         0.0 +j      0.0        0.0       0.8733
   TERMINAL TOTAL     0.0 +j      0.0        0.0       0.8733

ELEMENT = "Line.ln6230800-1"
M1186061     2         0.0 +j      0.0        0.0       0.8735
   TERMINAL TOTAL     0.0 +j      0.0        0.0       0.8735

ELEMENT = "Line.ln5985339-2"
M1069130     1         0.0 +j      0.0        0.0       0.8737
   TERMINAL TOTAL     0.0 +j      0.0        0.0       0.8737

ELEMENT = "Line.ln5898059-3"
E182730     1         0.0 +j      0.0        0.0       0.8734
   TERMINAL TOTAL     0.0 +j      0.0        0.0       0.8734

ELEMENT = "Line.ln5956457-2"
M1069417     1        53.3 +j     13.2       54.9       0.9708
M1069417     2       126.5 +j     31.5      130.4       0.9703
M1069417     3       222.1 +j     58.4      229.6       0.9671
   TERMINAL TOTAL   401.8 +j    103.1      414.8       0.9686
N1138597     1       -53.3 +j    -13.2       54.9       0.9708
N1138597     2      -126.5 +j    -31.5      130.4       0.9703
N1138597     3      -222.1 +j    -58.4      229.6       0.9671
   TERMINAL TOTAL  -401.8 +j   -103.1      414.8       0.9686

ELEMENT = "Line.ln5865229-1"
M1026987     2         0.0 +j      0.0        0.0       0.8733
   TERMINAL TOTAL     0.0 +j      0.0        0.0       0.8733

ELEMENT = "Line.ln6018331-1"
M1142832     1       294.5 +j   -252.7      388.1      -0.7588
M1142832     2       368.4 +j   -233.2      436.0      -0.8449
M1142832     3       421.7 +j   -225.0      478.0      -0.8823
   TERMINAL TOTAL  1084.6 +j   -711.0     1296.8      -0.8363
L3160865     1      -294.5 +j    252.8      388.1      -0.7588
L3160865     2      -368.3 +j    233.3      436.0      -0.8448
L3160865     3      -421.7 +j    225.1      478.0      -0.8822
   TERMINAL TOTAL -1084.5 +j    711.2     1296.8      -0.8362

ELEMENT = "Line.ln6199535-1"
L2673323     3         0.0 +j      0.0        0.0       0.8746
   TERMINAL TOTAL     0.0 +j      0.0        0.0       0.8746

ELEMENT = "Line.ln5502538-1"
L2822869     1       148.3 +j     36.0      152.6       0.9717
L2822869     2        58.2 +j     14.6       60.0       0.9698
L2822869     3       106.9 +j     27.1      110.3       0.9693
   TERMINAL TOTAL   313.4 +j     77.7      322.9       0.9706
M1026808     1      -148.2 +j    -36.0      152.5       0.9717
M1026808     2       -58.2 +j    -14.6       60.0       0.9697
M1026808     3      -106.9 +j    -27.1      110.3       0.9693
   TERMINAL TOTAL  -313.3 +j    -77.8      322.8       0.9705

ELEMENT = "Line.ln5742816-2"
M1047825     2         0.0 +j      0.0        0.0       0.8733
   TERMINAL TOTAL     0.0 +j      0.0        0.0       0.8733

ELEMENT = "Line.ln6229803-3"
N1140520     3         0.0 +j      0.0        0.0       0.7816
   TERMINAL TOTAL     0.0 +j      0.0        0.0       0.7816

ELEMENT = "Line.ln5986930-1"
M1026646     1         0.0 +j      0.0        0.0       0.8734
   TERMINAL TOTAL     0.0 +j      0.0        0.0       0.8734

ELEMENT = "Line.ln6350532-1"
M1069384     1         0.0 +j      0.0        0.0       0.8770
   TERMINAL TOTAL     0.0 +j      0.0        0.0       0.8770

ELEMENT = "Line.ln5588016-3"
L2710546     2         0.0 +j      0.0        0.0       0.7814
   TERMINAL TOTAL     0.0 +j      0.0        0.0       0.7814

ELEMENT = "Line.ln5623409-1"
M1047319     3         0.0 +j      0.0        0.0       0.8735
   TERMINAL TOTAL     0.0 +j      0.0        0.0       0.8735

ELEMENT = "Line.ln6350560-1"
L3216358     1         0.0 +j      0.0        0.0       0.8823
   TERMINAL TOTAL     0.0 +j      0.0        0.0       0.8823

ELEMENT = "Line.ln5472347-1"
M1108274     2         0.0 +j      0.0        0.0       0.8734
   TERMINAL TOTAL     0.0 +j      0.0        0.0       0.8734

ELEMENT = "Line.ln6290199-1"
M1089198     1       612.8 +j   -251.5      662.4      -0.9251
M1089198     2       668.8 +j   -238.0      709.9      -0.9421
M1089198     3       630.2 +j   -240.1      674.4      -0.9345
   TERMINAL TOTAL  1911.9 +j   -729.6     2046.3      -0.9343
M1089201     1      -612.6 +j    251.9      662.4      -0.9248
M1089201     2      -668.5 +j    238.5      709.8      -0.9419
M1089201     3      -630.0 +j    240.6      674.4      -0.9342
   TERMINAL TOTAL -1911.2 +j    731.0     2046.2      -0.9340

ELEMENT = "Line.ln6409775-3"
M1047763     1         0.0 +j      0.0        0.0       0.8733
   TERMINAL TOTAL     0.0 +j      0.0        0.0       0.8733

ELEMENT = "Line.ln5591811-1"
L3101827     3         0.0 +j      0.0        0.0       0.8734
   TERMINAL TOTAL     0.0 +j      0.0        0.0       0.8734

ELEMENT = "Line.ln6229808-1"
M1026335     1         0.0 +j      0.0        0.0       0.7822
   TERMINAL TOTAL     0.0 +j      0.0        0.0       0.7822

ELEMENT = "Line.ln5651985-3"
N1136357     3         0.0 +j      0.0        0.0       0.7816
   TERMINAL TOTAL     0.0 +j      0.0        0.0       0.7816

ELEMENT = "Line.ln6047577-1"
M1047513     1       302.2 +j     74.5      311.3       0.9710
M1047513     2       252.3 +j     62.9      260.1       0.9703
M1047513     3       408.8 +j    107.3      422.6       0.9672
   TERMINAL TOTAL   963.4 +j    244.7      994.0       0.9692
M1047507     1      -302.1 +j    -74.4      311.1       0.9710
M1047507     2      -252.2 +j    -62.9      259.9       0.9703
M1047507     3      -408.4 +j   -107.2      422.3       0.9672
   TERMINAL TOTAL  -962.7 +j   -244.5      993.3       0.9692

ELEMENT = "Line.ln5528574-2"
M1142863     3         0.0 +j      0.0        0.0       0.8733
   TERMINAL TOTAL     0.0 +j      0.0        0.0       0.8733

ELEMENT = "Line.ln5896827-1"
M1125916     2         0.0 +j      0.0        0.0       0.8741
   TERMINAL TOTAL     0.0 +j      0.0        0.0       0.8741

ELEMENT = "Line.ln5774451-1"
L3066809     3         0.0 +j      0.0        0.0       0.8767
   TERMINAL TOTAL     0.0 +j      0.0        0.0       0.8767

ELEMENT = "Line.ln5504876-1"
M1142818     1        20.3 +j      5.1       20.9       0.9700
M1142818     2        12.8 +j      3.0       13.2       0.9739
M1142818     3         0.0 +j     -0.1        0.1      -0.0561
   TERMINAL TOTAL    33.1 +j      7.9       34.1       0.9725
P829965     1       -20.3 +j     -5.1       20.9       0.9698
P829965     2       -12.8 +j     -3.0       13.2       0.9736
P829965     3        -0.0 +j      0.1        0.1      -0.0561
   TERMINAL TOTAL   -33.1 +j     -8.0       34.1       0.9722

ELEMENT = "Line.ln5860423-4"
Q14733     1       550.7 +j    165.4      575.0       0.9577
Q14733     2       506.4 +j    154.1      529.3       0.9567
Q14733     3       590.7 +j    183.9      618.7       0.9548
   TERMINAL TOTAL  1647.8 +j    503.3     1723.0       0.9564
M1047568     1      -550.7 +j   -165.3      574.9       0.9578
M1047568     2      -506.4 +j   -154.0      529.3       0.9567
M1047568     3      -590.7 +j   -183.8      618.6       0.9548
   TERMINAL TOTAL -1647.7 +j   -503.2     1722.8       0.9564

ELEMENT = "Line.ln6138613-1"
M1047326     1         0.0 +j      0.0        0.0       0.7819
   TERMINAL TOTAL     0.0 +j      0.0        0.0       0.7819

ELEMENT = "Line.ln6077771-1"
M1009824     2         0.0 +j      0.0        0.0       0.8961
   TERMINAL TOTAL     0.0 +j      0.0        0.0       0.8961

ELEMENT = "Line.ln6138636-1"
M1047409     1         0.0 +j      0.0        0.0       0.8743
   TERMINAL TOTAL     0.0 +j      0.0        0.0       0.8743

ELEMENT = "Line.ln6199512-1"
M1089177     3         0.0 +j      0.0        0.0       0.8740
   TERMINAL TOTAL     0.0 +j      0.0        0.0       0.8740

ELEMENT = "Line.ln6047564-1"
M1026951     2         0.0 +j      0.0        0.0       0.7818
   TERMINAL TOTAL     0.0 +j      0.0        0.0       0.7818

ELEMENT = "Line.ln6258460-3"
M4122657     3         0.0 +j      0.0        0.0       0.7837
   TERMINAL TOTAL     0.0 +j      0.0        0.0       0.7837

ELEMENT = "Line.ln5683810-1"
M1069419     1        53.2 +j     13.1       54.8       0.9709
M1069419     2       132.1 +j     33.0      136.2       0.9702
M1069419     3       222.1 +j     58.5      229.7       0.9670
   TERMINAL TOTAL   407.5 +j    104.6      420.7       0.9686
M1069418     1       -53.2 +j    -13.1       54.8       0.9709
M1069418     2      -132.1 +j    -33.0      136.2       0.9702
M1069418     3      -222.1 +j    -58.5      229.7       0.9671
   TERMINAL TOTAL  -407.5 +j   -104.6      420.7       0.9686

ELEMENT = "Line.ln5852082-1"
M1026824     3         0.0 +j      0.0        0.0       0.8886
   TERMINAL TOTAL     0.0 +j      0.0        0.0       0.8886

ELEMENT = "Line.ln6380816-1"
M1047453     2         0.0 +j      0.0        0.0       0.7827
   TERMINAL TOTAL     0.0 +j      0.0        0.0       0.7827

ELEMENT = "Line.ln6108138-2"
P860892     3         0.0 +j      0.0        0.0       0.7814
   TERMINAL TOTAL     0.0 +j      0.0        0.0       0.7814

ELEMENT = "Line.ln6167732-2"
M1089205     1         0.0 +j      0.0        0.0       0.8734
   TERMINAL TOTAL     0.0 +j      0.0        0.0       0.8734

ELEMENT = "Line.ln6229831-1"
L2710542     2         0.0 +j      0.0        0.0       0.8732
   TERMINAL TOTAL     0.0 +j      0.0        0.0       0.8732

ELEMENT = "Line.ln6504020-2"
M3032980     1      1212.2 +j   -401.5     1277.0      -0.9493
...